Network_data/Network_model/Feeder3/OpenDSS_Loads.txt
New Load.Feeder3_LOAD1 Phases=1 Bus1=Feeder3_78.1 kV=0.23094 kW=0 Kvar=0 Model=8 Vminpu=0.8 Vmaxpu=1.2 ZIPV=[0 0 1 0 0 1 0.8]
New Load.Feeder3_LOAD2 Phases=1 Bus1=Feeder3_177.1 kV=0.23094 kW=0 Kvar=0 Model=8 Vminpu=0.8 Vmaxpu=1.2 ZIPV=[0 0 1 0 0 1 0.8]
New Load.Feeder3_LOAD3 Phases=1 Bus1=Feeder3_220.2 kV=0.23094 kW=0 Kvar=0 Model=8 Vminpu=0.8 Vmaxpu=1.2 ZIPV=[0 0 1 0 0 1 0.8]
New Load.Feeder3_LOAD4 Phases=1 Bus1=Feeder3_290.1 kV=0.23094 kW=0 Kvar=0 Model=8 Vminpu=0.8 Vmaxpu=1.2 ZIPV=[0 0 1 0 0 1 0.8]
New Load.Feeder3_LOAD5 Phases=1 Bus1=Feeder3_370.2 kV=0.23094 kW=0 Kvar=0 Model=8 Vminpu=0.8 Vmaxpu=1.2 ZIPV=[0 0 1 0 0 1 0.8]
New Load.Feeder3_LOAD6 Phases=1 Bus1=Feeder3_371.3 kV=0.23094 kW=0 Kvar=0 Model=8 Vminpu=0.8 Vmaxpu=1.2 ZIPV=[0 0 1 0 0 1 0.8]
New Load.Feeder3_LOAD7 Phases=1 Bus1=Feeder3_389.3 kV=0.23094 kW=0 Kvar=0 Model=8 Vminpu=0.8 Vmaxpu=1.2 ZIPV=[0 0 1 0 0 1 0.8]
New Load.Feeder3_LOAD8 Phases=1 Bus1=Feeder3_405.1 kV=0.23094 kW=0 Kvar=0 Model=8 Vminpu=0.8 Vmaxpu=1.2 ZIPV=[0 0 1 0 0 1 0.8]
New Load.Feeder3_LOAD9 Phases=1 Bus1=Feeder3_421.2 kV=0.23094 kW=0 Kvar=0 Model=8 Vminpu=0.8 Vmaxpu=1.2 ZIPV=[0 0 1 0 0 1 0.8]
New Load.Feeder3_LOAD10 Phases=1 Bus1=Feeder3_436.1 kV=0.23094 kW=0 Kvar=0 Model=8 Vminpu=0.8 Vmaxpu=1.2 ZIPV=[0 0 1 0 0 1 0.8]
New Load.Feeder3_LOAD11 Phases=1 Bus1=Feeder3_437.1 kV=0.23094 kW=0 Kvar=0 Model=8 Vminpu=0.8 Vmaxpu=1.2 ZIPV=[0 0 1 0 0 1 0.8]
New Load.Feeder3_LOAD12 Phases=1 Bus1=Feeder3_473.2 kV=0.23094 kW=0 Kvar=0 Model=8 Vminpu=0.8 Vmaxpu=1.2 ZIPV=[0 0 1 0 0 1 0.8]
New Load.Feeder3_LOAD13 Phases=1 Bus1=Feeder3_495.3 kV=0.23094 kW=0 Kvar=0 Model=8 Vminpu=0.8 Vmaxpu=1.2 ZIPV=[0 0 1 0 0 1 0.8]
New Load.Feeder3_LOAD14 Phases=1 Bus1=Feeder3_521.2 kV=0.23094 kW=0 Kvar=0 Model=8 Vminpu=0.8 Vmaxpu=1.2 ZIPV=[0 0 1 0 0 1 0.8]
New Load.Feeder3_LOAD15 Phases=1 Bus1=Feeder3_544.3 kV=0.23094 kW=0 Kvar=0 Model=8 Vminpu=0.8 Vmaxpu=1.2 ZIPV=[0 0 1 0 0 1 0.8]
New Load.Feeder3_LOAD16 Phases=1 Bus1=Feeder3_552.3 kV=0.23094 kW=0 Kvar=0 Model=8 Vminpu=0.8 Vmaxpu=1.2 ZIPV=[0 0 1 0 0 1 0.8]
New Load.Feeder3_LOAD17 Phases=1 Bus1=Feeder3_556.2 kV=0.23094 kW=0 Kvar=0 Model=8 Vminpu=0.8 Vmaxpu=1.2 ZIPV=[0 0 1 0 0 1 0.8]
New Load.Feeder3_LOAD18 Phases=1 Bus1=Feeder3_562.3 kV=0.23094 kW=0 Kvar=0 Model=8 Vminpu=0.8 Vmaxpu=1.2 ZIPV=[0 0 1 0 0 1 0.8]
New Load.Feeder3_LOAD19 Phases=1 Bus1=Feeder3_590.3 kV=0.23094 kW=0 Kvar=0 Model=8 Vminpu=0.8 Vmaxpu=1.2 ZIPV=[0 0 1 0 0 1 0.8]
New Load.Feeder3_LOAD20 Phases=1 Bus1=Feeder3_646.3 kV=0.23094 kW=0 Kvar=0 Model=8 Vminpu=0.8 Vmaxpu=1.2 ZIPV=[0 0 1 0 0 1 0.8]
New Load.Feeder3_LOAD21 Phases=1 Bus1=Feeder3_668.1 kV=0.23094 kW=0 Kvar=0 Model=8 Vminpu=0.8 Vmaxpu=1.2 ZIPV=[0 0 1 0 0 1 0.8]
New Load.Feeder3_LOAD22 Phases=1 Bus1=Feeder3_700.1 kV=0.23094 kW=0 Kvar=0 Model=8 Vminpu=0.8 Vmaxpu=1.2 ZIPV=[0 0 1 0 0 1 0.8]
New Load.Feeder3_LOAD23 Phases=1 Bus1=Feeder3_734.2 kV=0.23094 kW=0 Kvar=0 Model=8 Vminpu=0.8 Vmaxpu=1.2 ZIPV=[0 0 1 0 0 1 0.8]
New Load.Feeder3_LOAD24 Phases=1 Bus1=Feeder3_752.2 kV=0.23094 kW=0 Kvar=0 Model=8 Vminpu=0.8 Vmaxpu=1.2 ZIPV=[0 0 1 0 0 1 0.8]
New Load.Feeder3_LOAD25 Phases=1 Bus1=Feeder3_785.3 kV=0.23094 kW=0 Kvar=0 Model=8 Vminpu=0.8 Vmaxpu=1.2 ZIPV=[0 0 1 0 0 1 0.8]
New Load.Feeder3_LOAD26 Phases=1 Bus1=Feeder3_798.1 kV=0.23094 kW=0 Kvar=0 Model=8 Vminpu=0.8 Vmaxpu=1.2 ZIPV=[0 0 1 0 0 1 0.8]
New Load.Feeder3_LOAD27 Phases=1 Bus1=Feeder3_799.2 kV=0.23094 kW=0 Kvar=0 Model=8 Vminpu=0.8 Vmaxpu=1.2 ZIPV=[0 0 1 0 0 1 0.8]
New Load.Feeder3_LOAD28 Phases=1 Bus1=Feeder3_800.3 kV=0.23094 kW=0 Kvar=0 Model=8 Vminpu=0.8 Vmaxpu=1.2 ZIPV=[0 0 1 0 0 1 0.8]
New Load.Feeder3_LOAD29 Phases=1 Bus1=Feeder3_826.1 kV=0.23094 kW=0 Kvar=0 Model=8 Vminpu=0.8 Vmaxpu=1.2 ZIPV=[0 0 1 0 0 1 0.8]
New Load.Feeder3_LOAD30 Phases=1 Bus1=Feeder3_856.1 kV=0.23094 kW=0 Kvar=0 Model=8 Vminpu=0.8 Vmaxpu=1.2 ZIPV=[0 0 1 0 0 1 0.8]
New Load.Feeder3_LOAD31 Phases=1 Bus1=Feeder3_857.2 kV=0.23094 kW=0 Kvar=0 Model=8 Vminpu=0.8 Vmaxpu=1.2 ZIPV=[0 0 1 0 0 1 0.8]
New Load.Feeder3_LOAD32 Phases=1 Bus1=Feeder3_861.1 kV=0.23094 kW=0 Kvar=0 Model=8 Vminpu=0.8 Vmaxpu=1.2 ZIPV=[0 0 1 0 0 1 0.8]
New Load.Feeder3_LOAD33 Phases=1 Bus1=Feeder3_871.1 kV=0.23094 kW=0 Kvar=0 Model=8 Vminpu=0.8 Vmaxpu=1.2 ZIPV=[0 0 1 0 0 1 0.8]
New Load.Feeder3_LOAD34 Phases=1 Bus1=Feeder3_872.1 kV=0.23094 kW=0 Kvar=0 Model=8 Vminpu=0.8 Vmaxpu=1.2 ZIPV=[0 0 1 0 0 1 0.8]
New Load.Feeder3_LOAD35 Phases=1 Bus1=Feeder3_881.2 kV=0.23094 kW=0 Kvar=0 Model=8 Vminpu=0.8 Vmaxpu=1.2 ZIPV=[0 0 1 0 0 1 0.8]
New Load.Feeder3_LOAD36 Phases=1 Bus1=Feeder3_882.3 kV=0.23094 kW=0 Kvar=0 Model=8 Vminpu=0.8 Vmaxpu=1.2 ZIPV=[0 0 1 0 0 1 0.8]
New Load.Feeder3_LOAD37 Phases=1 Bus1=Feeder3_903.1 kV=0.23094 kW=0 Kvar=0 Model=8 Vminpu=0.8 Vmaxpu=1.2 ZIPV=[0 0 1 0 0 1 0.8]
New Load.Feeder3_LOAD38 Phases=1 Bus1=Feeder3_917.3 kV=0.23094 kW=0 Kvar=0 Model=8 Vminpu=0.8 Vmaxpu=1.2 ZIPV=[0 0 1 0 0 1 0.8]
New Load.Feeder3_LOAD39 Phases=1 Bus1=Feeder3_928.2 kV=0.23094 kW=0 Kvar=0 Model=8 Vminpu=0.8 Vmaxpu=1.2 ZIPV=[0 0 1 0 0 1 0.8]
New Load.Feeder3_LOAD40 Phases=1 Bus1=Feeder3_973.1 kV=0.23094 kW=0 Kvar=0 Model=8 Vminpu=0.8 Vmaxpu=1.2 ZIPV=[0 0 1 0 0 1 0.8]
New Load.Feeder3_LOAD41 Phases=1 Bus1=Feeder3_976.1 kV=0.23094 kW=0 Kvar=0 Model=8 Vminpu=0.8 Vmaxpu=1.2 ZIPV=[0 0 1 0 0 1 0.8]
New Load.Feeder3_LOAD42 Phases=1 Bus1=Feeder3_998.2 kV=0.23094 kW=0 Kvar=0 Model=8 Vminpu=0.8 Vmaxpu=1.2 ZIPV=[0 0 1 0 0 1 0.8]
New Load.Feeder3_LOAD43 Phases=1 Bus1=Feeder3_1010.3 kV=0.23094 kW=0 Kvar=0 Model=8 Vminpu=0.8 Vmaxpu=1.2 ZIPV=[0 0 1 0 0 1 0.8]
New Load.Feeder3_LOAD44 Phases=1 Bus1=Feeder3_1087.1 kV=0.23094 kW=0 Kvar=0 Model=8 Vminpu=0.8 Vmaxpu=1.2 ZIPV=[0 0 1 0 0 1 0.8]
New Load.Feeder3_LOAD45 Phases=1 Bus1=Feeder3_1089.2 kV=0.23094 kW=0 Kvar=0 Model=8 Vminpu=0.8 Vmaxpu=1.2 ZIPV=[0 0 1 0 0 1 0.8]
New Load.Feeder3_LOAD46 Phases=1 Bus1=Feeder3_1090.3 kV=0.23094 kW=0 Kvar=0 Model=8 Vminpu=0.8 Vmaxpu=1.2 ZIPV=[0 0 1 0 0 1 0.8]
New Load.Feeder3_LOAD47 Phases=1 Bus1=Feeder3_1091.1 kV=0.23094 kW=0 Kvar=0 Model=8 Vminpu=0.8 Vmaxpu=1.2 ZIPV=[0 0 1 0 0 1 0.8]
New Load.Feeder3_LOAD48 Phases=1 Bus1=Feeder3_1092.2 kV=0.23094 kW=0 Kvar=0 Model=8 Vminpu=0.8 Vmaxpu=1.2 ZIPV=[0 0 1 0 0 1 0.8]
New Load.Feeder3_LOAD49 Phases=1 Bus1=Feeder3_1113.3 kV=0.23094 kW=0 Kvar=0 Model=8 Vminpu=0.8 Vmaxpu=1.2 ZIPV=[0 0 1 0 0 1 0.8]
New Load.Feeder3_LOAD50 Phases=1 Bus1=Feeder3_1116.3 kV=0.23094 kW=0 Kvar=0 Model=8 Vminpu=0.8 Vmaxpu=1.2 ZIPV=[0 0 1 0 0 1 0.8]
New Load.Feeder3_LOAD51 Phases=1 Bus1=Feeder3_1117.3 kV=0.23094 kW=0 Kvar=0 Model=8 Vminpu=0.8 Vmaxpu=1.2 ZIPV=[0 0 1 0 0 1 0.8]
New Load.Feeder3_LOAD52 Phases=1 Bus1=Feeder3_1132.3 kV=0.23094 kW=0 Kvar=0 Model=8 Vminpu=0.8 Vmaxpu=1.2 ZIPV=[0 0 1 0 0 1 0.8]
New Load.Feeder3_LOAD53 Phases=1 Bus1=Feeder3_1169.1 kV=0.23094 kW=0 Kvar=0 Model=8 Vminpu=0.8 Vmaxpu=1.2 ZIPV=[0 0 1 0 0 1 0.8]
New Load.Feeder3_LOAD54 Phases=1 Bus1=Feeder3_1170.2 kV=0.23094 kW=0 Kvar=0 Model=8 Vminpu=0.8 Vmaxpu=1.2 ZIPV=[0 0 1 0 0 1 0.8]
New Load.Feeder3_LOAD55 Phases=1 Bus1=Feeder3_1171.3 kV=0.23094 kW=0 Kvar=0 Model=8 Vminpu=0.8 Vmaxpu=1.2 ZIPV=[0 0 1 0 0 1 0.8]
New Load.Feeder3_LOAD56 Phases=1 Bus1=Feeder3_1172.1 kV=0.23094 kW=0 Kvar=0 Model=8 Vminpu=0.8 Vmaxpu=1.2 ZIPV=[0 0 1 0 0 1 0.8]
New Load.Feeder3_LOAD57 Phases=1 Bus1=Feeder3_1173.2 kV=0.23094 kW=0 Kvar=0 Model=8 Vminpu=0.8 Vmaxpu=1.2 ZIPV=[0 0 1 0 0 1 0.8]
New Load.Feeder3_LOAD58 Phases=1 Bus1=Feeder3_1174.3 kV=0.23094 kW=0 Kvar=0 Model=8 Vminpu=0.8 Vmaxpu=1.2 ZIPV=[0 0 1 0 0 1 0.8]
New Load.Feeder3_LOAD59 Phases=1 Bus1=Feeder3_1203.1 kV=0.23094 kW=0 Kvar=0 Model=8 Vminpu=0.8 Vmaxpu=1.2 ZIPV=[0 0 1 0 0 1 0.8]
New Load.Feeder3_LOAD60 Phases=1 Bus1=Feeder3_1204.2 kV=0.23094 kW=0 Kvar=0 Model=8 Vminpu=0.8 Vmaxpu=1.2 ZIPV=[0 0 1 0 0 1 0.8]
New Load.Feeder3_LOAD61 Phases=1 Bus1=Feeder3_1205.3 kV=0.23094 kW=0 Kvar=0 Model=8 Vminpu=0.8 Vmaxpu=1.2 ZIPV=[0 0 1 0 0 1 0.8]
New Load.Feeder3_LOAD62 Phases=1 Bus1=Feeder3_1206.1 kV=0.23094 kW=0 Kvar=0 Model=8 Vminpu=0.8 Vmaxpu=1.2 ZIPV=[0 0 1 0 0 1 0.8]
New Load.Feeder3_LOAD63 Phases=1 Bus1=Feeder3_1207.2 kV=0.23094 kW=0 Kvar=0 Model=8 Vminpu=0.8 Vmaxpu=1.2 ZIPV=[0 0 1 0 0 1 0.8]
New Load.Feeder3_LOAD64 Phases=1 Bus1=Feeder3_1208.3 kV=0.23094 kW=0 Kvar=0 Model=8 Vminpu=0.8 Vmaxpu=1.2 ZIPV=[0 0 1 0 0 1 0.8]
New Load.Feeder3_LOAD65 Phases=1 Bus1=Feeder3_1209.1 kV=0.23094 kW=0 Kvar=0 Model=8 Vminpu=0.8 Vmaxpu=1.2 ZIPV=[0 0 1 0 0 1 0.8]
New Load.Feeder3_LOAD66 Phases=1 Bus1=Feeder3_1210.2 kV=0.23094 kW=0 Kvar=0 Model=8 Vminpu=0.8 Vmaxpu=1.2 ZIPV=[0 0 1 0 0 1 0.8]
New Load.Feeder3_LOAD67 Phases=1 Bus1=Feeder3_1225.2 kV=0.23094 kW=0 Kvar=0 Model=8 Vminpu=0.8 Vmaxpu=1.2 ZIPV=[0 0 1 0 0 1 0.8]
New Load.Feeder3_LOAD68 Phases=1 Bus1=Feeder3_1235.1 kV=0.23094 kW=0 Kvar=0 Model=8 Vminpu=0.8 Vmaxpu=1.2 ZIPV=[0 0 1 0 0 1 0.8]
New Load.Feeder3_LOAD69 Phases=1 Bus1=Feeder3_1241.3 kV=0.23094 kW=0 Kvar=0 Model=8 Vminpu=0.8 Vmaxpu=1.2 ZIPV=[0 0 1 0 0 1 0.8]
New Load.Feeder3_LOAD70 Phases=1 Bus1=Feeder3_1248.1 kV=0.23094 kW=0 Kvar=0 Model=8 Vminpu=0.8 Vmaxpu=1.2 ZIPV=[0 0 1 0 0 1 0.8]
New Load.Feeder3_LOAD71 Phases=1 Bus1=Feeder3_1249.2 kV=0.23094 kW=0 Kvar=0 Model=8 Vminpu=0.8 Vmaxpu=1.2 ZIPV=[0 0 1 0 0 1 0.8]
New Load.Feeder3_LOAD72 Phases=1 Bus1=Feeder3_1250.3 kV=0.23094 kW=0 Kvar=0 Model=8 Vminpu=0.8 Vmaxpu=1.2 ZIPV=[0 0 1 0 0 1 0.8]
New Load.Feeder3_LOAD73 Phases=1 Bus1=Feeder3_1251.1 kV=0.23094 kW=0 Kvar=0 Model=8 Vminpu=0.8 Vmaxpu=1.2 ZIPV=[0 0 1 0 0 1 0.8]
New Load.Feeder3_LOAD74 Phases=1 Bus1=Feeder3_1252.2 kV=0.23094 kW=0 Kvar=0 Model=8 Vminpu=0.8 Vmaxpu=1.2 ZIPV=[0 0 1 0 0 1 0.8]
New Load.Feeder3_LOAD75 Phases=1 Bus1=Feeder3_1253.3 kV=0.23094 kW=0 Kvar=0 Model=8 Vminpu=0.8 Vmaxpu=1.2 ZIPV=[0 0 1 0 0 1 0.8]
New Load.Feeder3_LOAD76 Phases=1 Bus1=Feeder3_1254.1 kV=0.23094 kW=0 Kvar=0 Model=8 Vminpu=0.8 Vmaxpu=1.2 ZIPV=[0 0 1 0 0 1 0.8]
New Load.Feeder3_LOAD77 Phases=1 Bus1=Feeder3_1255.2 kV=0.23094 kW=0 Kvar=0 Model=8 Vminpu=0.8 Vmaxpu=1.2 ZIPV=[0 0 1 0 0 1 0.8]
New Load.Feeder3_LOAD78 Phases=1 Bus1=Feeder3_1265.1 kV=0.23094 kW=0 Kvar=0 Model=8 Vminpu=0.8 Vmaxpu=1.2 ZIPV=[0 0 1 0 0 1 0.8]
New Load.Feeder3_LOAD79 Phases=1 Bus1=Feeder3_1289.3 kV=0.23094 kW=0 Kvar=0 Model=8 Vminpu=0.8 Vmaxpu=1.2 ZIPV=[0 0 1 0 0 1 0.8]
New Load.Feeder3_LOAD80 Phases=1 Bus1=Feeder3_1301.3 kV=0.23094 kW=0 Kvar=0 Model=8 Vminpu=0.8 Vmaxpu=1.2 ZIPV=[0 0 1 0 0 1 0.8]
New Load.Feeder3_LOAD81 Phases=1 Bus1=Feeder3_1350.3 kV=0.23094 kW=0 Kvar=0 Model=8 Vminpu=0.8 Vmaxpu=1.2 ZIPV=[0 0 1 0 0 1 0.8]
New Load.Feeder3_LOAD82 Phases=1 Bus1=Feeder3_1351.3 kV=0.23094 kW=0 Kvar=0 Model=8 Vminpu=0.8 Vmaxpu=1.2 ZIPV=[0 0 1 0 0 1 0.8]
New Load.Feeder3_LOAD83 Phases=1 Bus1=Feeder3_1352.3 kV=0.23094 kW=0 Kvar=0 Model=8 Vminpu=0.8 Vmaxpu=1.2 ZIPV=[0 0 1 0 0 1 0.8]
New Load.Feeder3_LOAD84 Phases=1 Bus1=Feeder3_1371.1 kV=0.23094 kW=0 Kvar=0 Model=8 Vminpu=0.8 Vmaxpu=1.2 ZIPV=[0 0 1 0 0 1 0.8]
New Load.Feeder3_LOAD85 Phases=1 Bus1=Feeder3_1372.2 kV=0.23094 kW=0 Kvar=0 Model=8 Vminpu=0.8 Vmaxpu=1.2 ZIPV=[0 0 1 0 0 1 0.8]
New Load.Feeder3_LOAD86 Phases=1 Bus1=Feeder3_1373.3 kV=0.23094 kW=0 Kvar=0 Model=8 Vminpu=0.8 Vmaxpu=1.2 ZIPV=[0 0 1 0 0 1 0.8]
New Load.Feeder3_LOAD87 Phases=1 Bus1=Feeder3_1374.1 kV=0.23094 kW=0 Kvar=0 Model=8 Vminpu=0.8 Vmaxpu=1.2 ZIPV=[0 0 1 0 0 1 0.8]
New Load.Feeder3_LOAD88 Phases=1 Bus1=Feeder3_1375.2 kV=0.23094 kW=0 Kvar=0 Model=8 Vminpu=0.8 Vmaxpu=1.2 ZIPV=[0 0 1 0 0 1 0.8]
New Load.Feeder3_LOAD89 Phases=1 Bus1=Feeder3_1376.3 kV=0.23094 kW=0 Kvar=0 Model=8 Vminpu=0.8 Vmaxpu=1.2 ZIPV=[0 0 1 0 0 1 0.8]
New Load.Feeder3_LOAD90 Phases=1 Bus1=Feeder3_1377.1 kV=0.23094 kW=0 Kvar=0 Model=8 Vminpu=0.8 Vmaxpu=1.2 ZIPV=[0 0 1 0 0 1 0.8]
